* PSpice Model Editor - Version 9.2.3

*$
*      Fairchild 4007
*
.model pMOS2 PMOS( L=1.6u W=23.7u Level=1 Gamma=0.8 Lambda=0.042 Vto=-0.5
+ Uo=158 Tox=18.2n Ld=100n Nsub=2.2E16 Phi=0.6 Pb=0.9
+ Cj=4.5E-4 Cjsw=2.5E-10 CGSO=1.9E-10 CGDO=1.9E-10 Mj=0.5 Mjsw=0.3
+ Rsh=10 KF=5E-26) 
*	
*$
*      Fairchild 4007
*
.model nMOS1 NMOS( L=1.6u W=4.2u Level=1 Gamma=0.5 Lambda=0.0132 Vto=1.1
+ Uo=486 Tox=18.2n Ld=100n Nsub=1E15 Phi=0.6 Pb=0.9
+ Cj=2.5E-4 Cjsw=2.0E-10 CGSO=1.9E-10 CGDO=1.9E-10 Mj=0.5 Mjsw=0.3
+ Rsh=10 KF=5E-26) 
*	
*$
* LM3086/LM3018 NPN model
* created using Parts release 6.3a on 02/15/97 at 16:18
* Parts is a MicroSim product.
.MODEL LM3086 NPN
+ IS=10.000E-15
+ BF=156.66
+ VAF=100
+ IKF=36.783E-3
+ ISE=114.82E-15
+ NE=1.4743
+ BR=.1001
+ VAR=100
+ IKR=10.010E-3
+ ISC=10.000E-15
+ RC=10
+ CJE=1.0260E-12
+ MJE=.33333
+ CJC=991.79E-15
+ MJC=.33333
+ TF=278.55E-12
+ XTF=91.905
+ VTF=18.899
+ ITF=.77631
+ TR=10.000E-9
*
*$
*---------------------------------------------------------------------------
*
.MODEL BF245C/PLP NJF
+             VTO = -5.0014E+000
+            BETA = 5.43157E-004
+          LAMBDA = 2.71505E-002
+              RD = 1.20869E+001
+              RS = 1.20869E+001
+              IS = 3.64346E-016
+            CGS  = 2.00000E-012
+            CGD  = 2.00000E-012
+              PB = 1.24659E+000
+              FC = 5.00000E-001
*
*$

*ZETEX  BC238BP Spice model     Last revision  4/90
*
.MODEL BC238BP/ZTX NPN IS =1.8E-14 ISE=5.0E-14 NF =.9955 NE =1.46 BF =400
+BR =35.5 IKF=.14 IKR=.03 ISC=1.72E-13 NC =1.27 NR =1.005 RB =.56 RE =.6
+RC =.25 VAF=80 VAR=12.5 CJE=13E-12 TF =.64E-9 CJC=4E-12 TR =50.72E-9
+VJC=.54 MJC=.33
*$
